Version 4
SHEET 1 4268 680
WIRE 1152 -16 928 -16
WIRE 1008 32 576 32
WIRE 576 48 576 32
WIRE 928 48 928 -16
WIRE 1152 48 1024 48
WIRE 1312 48 1312 32
WIRE 1312 48 1280 48
WIRE 1008 112 1008 32
WIRE 1152 112 1008 112
WIRE 1440 112 1280 112
WIRE 1552 112 1440 112
WIRE 576 144 576 128
WIRE 1024 144 1024 48
WIRE 1024 144 576 144
WIRE 1152 176 1120 176
WIRE 1328 176 1280 176
WIRE 1440 176 1440 112
WIRE 1440 176 1408 176
WIRE 1552 176 1552 112
WIRE 1120 192 1120 176
WIRE -464 208 -464 176
WIRE -464 208 -496 208
WIRE -496 224 -496 208
WIRE -464 224 -464 208
WIRE 928 288 928 128
WIRE 928 288 576 288
WIRE 1552 288 1552 224
WIRE 1552 288 928 288
WIRE 576 304 576 288
FLAG -496 224 0
FLAG -464 96 Vcc
FLAG -464 304 Vss
FLAG 1312 32 Vcc
FLAG 1120 192 Vss
FLAG 576 304 0
FLAG 1024 144 0
SYMBOL voltage -464 80 R0
WINDOW 123 0 0 Left 0
WINDOW 39 0 0 Left 0
SYMATTR InstName V1
SYMATTR Value 9
SYMBOL voltage -464 208 R0
WINDOW 123 0 0 Left 0
WINDOW 39 0 0 Left 0
SYMATTR InstName V2
SYMATTR Value 9
SYMBOL AutoGenerated\\INA106 1216 80 R0
SYMATTR InstName U2
SYMBOL res 1424 160 R90
WINDOW 0 -627 -2820 VBottom 2
WINDOW 3 32 56 VTop 2
SYMATTR InstName R3
SYMATTR Value 50k
SYMBOL res 944 144 R180
WINDOW 0 -3317 623 Left 2
WINDOW 3 36 40 Left 2
SYMATTR InstName R4
SYMATTR Value 1m
SYMBOL Misc\\signal 576 32 R0
WINDOW 0 3660 -513 Left 2
WINDOW 3 6 494 Left 2
SYMATTR InstName V4
SYMATTR Value wavefile = "1_input.wav"
TEXT -512 448 Left 2 !.tran 5
TEXT 576 544 Left 2 !.wave "1_output.wav" 32 44.1k V(Out)
TEXT 816 -112 Left 2 ;Amplification
TEXT 576 272 Left 2 ;Reference Electrode
TEXT 576 160 Left 2 ;Negative Electrode
TEXT 576 16 Left 2 ;Positive Electrode
TEXT 1552 200 Left 2 ;Output
RECTANGLE Normal 1472 304 816 -96 2
